FoamFile { version 2.0; format ascii; class dictionary; object surfaceFeatureExtractDict; }

fuselage.stl
{
    scale               0.001;
    extractionMethod    extractFromSurface;
    extractFromSurfaceCoeffs { includedAngle 150; }
    writeObj yes;
}

stabilizers.stl
{
    scale               0.001;
    extractionMethod    extractFromSurface;
    extractFromSurfaceCoeffs { includedAngle 150; }
    writeObj yes;
}
